
**** 09/19/19 21:40:01 ****** PSpice Lite (October 2012) ****** ID# 10813 ****

 ** Profile: "SCHEMATIC1-bias"  [ F:\EV_1_1_Circuitos_de_rectificacion_no_controlados\ev_1_1_circuitos de rectificacion nocontrolados


 ****     CIRCUIT DESCRIPTION


******************************************************************************




** Creating circuit file "bias.cir" 
** WARNING: THIS AUTOMATICALLY GENERATED FILE MAY BE OVERWRITTEN BY SUBSEQUENT SIMULATIONS

*Libraries: 
* Profile Libraries :
* Local Libraries :
* From [PSPICE NETLIST] section of C:\SPB_Data\cdssetup\OrCAD_PSpice/16.6.0/PSpice.ini file:
.lib "nomd.lib" 

*Analysis directives: 
.TRAN  0 50us 0 400u 
.FOUR 50 20 i(Lr) 
.OPTIONS ADVCONV
.PROBE64 V(alias(*)) I(alias(*)) W(alias(*)) D(alias(*)) NOISE(alias(*)) 
.INC "..\SCHEMATIC1.net" 



**** INCLUDING SCHEMATIC1.net ****
* source EV_1_1_CIRCUITOS DE RECTIFICACION NOCONTROLADOS
L_L1         N14674 N14700  10mH  
R_R1         0 N14700  10 TC=0,0 
V_V1         N14664 0  
+SIN 0 311 50 0 0 0
D_D1         N14664 N14674 Dbreak 
D_D19         N19563 OUT+ Dbreak 
R_R7         N19497 OUT+  10 TC=0,0 
R_R6         N19686 N19563  10m TC=0,0 
C_C4         N19497 OUT+ Cbreak 1mF 
D_D18         N19497 N19563 Dbreak 
D_D17         N19497 N19563 Dbreak 
V_V7         N19471 N19563  AC 0
+SIN 0 311V 50Hz 0 0 0
L_L7         N19471 N19686  1mH  
D_D16         N19563 OUT+ Dbreak 

**** RESUMING bias.cir ****
.END


ERROR(ORPSIM-15090): FOUR device Lr is undefined

ERROR(ORPSIM-15142): Node N19563 is floating

ERROR(ORPSIM-15142): Node OUT+ is floating

ERROR(ORPSIM-15142): Node N19497 is floating

ERROR(ORPSIM-15142): Node N19686 is floating

ERROR(ORPSIM-15142): Node N19471 is floating
